48
Coordinates from ORCA-job xb_m_nitro_pFB_oh_chcl3_SP
  F   4.43985727525572     12.34895669661890      8.30749296905728
  C   5.27351469288549     13.24021835009382      7.80939416145847
  C   5.13243531820383     14.58119278130876      8.15661672876496
  F   4.18349926158057     14.97690217583255      8.99415111023096
  C   5.99836653157097     15.51844105558249      7.60774013149353
  F   5.89660568044260     16.79329729115448      7.93826919561421
  C   6.98553625017588     15.12468199534399      6.71220611151943
  F   7.77659947498424     16.04472304362436      6.19040633315722
  C   7.14894937209712     13.77935291720804      6.40120501746728
  F   8.12865894692567     13.40465434448477      5.59572534294183
  C   6.28000578632204     12.82908715399702      6.93410651516933
  N   6.42122377330177     11.46031938815065      6.60829462440718
  N   6.77223458250984     10.57427679654592      7.55710956724460
  N   6.84858345210028      9.42614416187794      6.99502449377211
  C   6.55230483110622      9.52436785849858      5.66520712044374
  C   6.26186923779845     10.85770734373961      5.39653555025480
  I   5.70197936815731     11.84942165817355      3.61566337405526
  O   5.31253463272972     12.54302462410375      1.22221651220909
  I   5.92467273006200     10.22037734878993      0.37936555627109
  C   6.49605648990243      8.18813165387682      0.19909787118520
  N   6.70633918830754      7.52978153716550     -0.97555768745805
  C   6.70429535250656      7.99806519076787     -2.31115483723182
  C   5.69980047730448      7.58190953729228     -3.18485515787778
  F   4.66438280104475      6.89706592686840     -2.73363111537450
  C   5.77556480070413      7.87257206169043     -4.54183615936861
  F   4.83527577313184      7.43934378005570     -5.36955953011052
  C   6.85220302764718      8.60540304151406     -5.02946469667945
  F   6.91519501119638      8.89911000111072     -6.31496715614694
  C   7.85651731394669      9.03872529127707     -4.16733694846478
  F   8.89600631563557      9.70930428906343     -4.64229707164083
  C   7.77555272516682      8.73967187579695     -2.81258943689111
  F   8.73560384263417      9.15386607566533     -2.00576630211187
  N   7.00926097979880      6.23390227303747     -0.76782233734544
  N   6.99849544926065      6.03994627925215      0.49618792586225
  C   6.68987569567857      7.19494971289762      1.15611830382934
  C   6.63363482925632      7.18048643267589      2.63960425664664
  C   6.58536430442798      8.34510758925038      3.41952506042250
  C   6.57559456968032      8.30546273903361      4.82088039011226
  C   6.62273334982051      7.06059828889285      5.45777707656773
  C   6.66561535696221      5.91346532720668      4.67793499286020
  N   6.72217337042284      4.60447238630283      5.35811296988391
  C   6.66909937988881      5.94174272343763      3.28990830778089
  H   6.56787897759393      9.31257189476745      2.92371561390327
  H   6.63337489847442      6.99039445958532      6.54467206007434
  H   6.71059726439597      5.01636310099600      2.71630535486191
  O   6.75551008042534      3.60854152911556      4.67022721211045
  O   6.72701164739420      4.58656127562519      6.56930881072380
  H   4.46242548917871     12.89547675064657      0.93206181434377
