71
Coordinates from ORCA-job bis6Phen_Cl_sp_orca
  N   -4.28245592000000      0.30982497000000      0.55418444000000
  N   -4.60686539000000      1.59909446000000      0.51641539000000
  N   -3.54367229000000      2.29012597000000      0.74800799000000
  C   -2.48594650000000      1.45737130000000      0.94145952000000
  C   -2.95981083000000      0.15401829000000      0.81814100000000
  I   -2.02303667000000     -1.69744397000000      1.01761905000000
  Cl  -0.07507576000000     -4.26749211000000      1.16186296000000
  I   1.97021614000000     -1.79295603000000      0.94102572000000
  C   2.98699445000000      0.01206127000000      0.71105363000000
  N   4.30571259000000      0.10566225000000      0.40198623000000
  N   4.69022820000000      1.37812488000000      0.35611510000000
  N   3.66989965000000      2.11821218000000      0.62564199000000
  C   2.58066669000000      1.33611376000000      0.85329462000000
  C   1.29030921000000      1.96987805000000      1.20041441000000
  C   0.04754564000000      1.37229851000000      0.94773878000000
  C   -1.15563671000000      2.02916343000000      1.24270084000000
  C   -1.10973666000000      3.31308115000000      1.79618529000000
  C   0.12722167000000      3.89217959000000      2.03793450000000
  N   0.17052614000000      5.24494235000000      2.62047311000000
  C   1.32542607000000      3.25392839000000      1.75447344000000
  H   0.01517598000000      0.39008460000000      0.47805531000000
  H   -2.02712524000000      3.85417778000000      2.02472855000000
  H   2.27569017000000      3.74904069000000      1.95034204000000
  O   1.25690156000000      5.74221561000000      2.82030448000000
  O   -0.88235550000000      5.78976840000000      2.86916139000000
  H   5.42652853000000      0.25098320000000     -4.48349043000000
  C   4.97034948000000     -0.49900779000000     -3.81409046000000
  C   5.55206645000000     -0.31581818000000     -2.40934828000000
  C   3.44500996000000     -0.38131291000000     -3.90120218000000
  C   2.88638587000000      0.95572581000000     -3.39967294000000
  H   5.27317753000000     -1.48377438000000     -4.21153724000000
  C   1.37746750000000      1.00591038000000     -3.40615507000000
  H   1.19000708000000      2.26594714000000     -5.14822212000000
  C   0.65376093000000      1.71540473000000     -4.36860229000000
  C   0.65416232000000      0.31279524000000     -2.42625255000000
  H   1.19210828000000     -0.24879764000000     -1.65636257000000
  C   -0.74382732000000      1.74645872000000     -4.34278140000000
  C   -0.73467594000000      0.34389079000000     -2.40044924000000
  H   -1.28388054000000      2.32061156000000     -5.10246752000000
  C   -1.46218224000000      1.06913614000000     -3.35356085000000
  H   -1.26818949000000     -0.19365975000000     -1.61043674000000
  C   -2.97062334000000      1.08448039000000     -3.29279193000000
  C   -3.60186743000000     -0.23100096000000     -3.76378687000000
  C   -5.65437389000000     -0.06991887000000     -2.20535456000000
  H   -5.57275345000000      0.48208926000000     -4.28558674000000
  C   -5.12704235000000     -0.28348132000000     -3.62686233000000
  H   -5.48344431000000     -1.25625022000000     -4.00916091000000
  H   5.27838706000000      0.68280837000000     -2.03147737000000
  H   6.65355474000000     -0.31110606000000     -2.46799179000000
  C   5.10940356000000     -1.38153290000000     -1.40396571000000
  H   -6.75599528000000     -0.01848143000000     -2.22802667000000
  H   -5.32638759000000      0.91767613000000     -1.84190134000000
  C   -5.22425571000000     -1.14873414000000     -1.20840729000000
  H   -3.36224612000000      1.92049335000000     -3.89592831000000
  H   -3.26984790000000      1.28641436000000     -2.25059962000000
  H   -3.14318242000000     -1.06534445000000     -3.20528555000000
  H   -3.32987491000000     -0.40066438000000     -4.81944522000000
  H   2.96942531000000     -1.20065034000000     -3.33474206000000
  H   3.13223930000000     -0.52897844000000     -4.94885289000000
  H   3.29189363000000      1.77894549000000     -4.01111654000000
  H   3.23095975000000      1.13675256000000     -2.36769758000000
  C   -5.29071933000000     -0.69979404000000      0.24868868000000
  H   -5.13333374000000     -1.54383620000000      0.93400270000000
  H   -6.25865966000000     -0.23917998000000      0.48950535000000
  C   5.25145212000000     -0.94903064000000      0.05279253000000
  H   6.24907455000000     -0.53805645000000      0.26004427000000
  H   5.07859033000000     -1.79038756000000      0.73766119000000
  H   -4.19321095000000     -1.48079218000000     -1.41157823000000
  H   -5.85537234000000     -2.04548480000000     -1.31755531000000
  H   5.69367488000000     -2.30547958000000     -1.54307828000000
  H   4.05723438000000     -1.66369854000000     -1.57060671000000
