72
Coordinates from ORCA-job bis6Phen_OH_sp_orca
  N   -4.21750528000000      0.49735401000000      0.53522875000000
  N   -4.55635163000000      1.55842363000000     -0.19238846000000
  N   -3.50826526000000      2.26733359000000     -0.40540311000000
  C   -2.43541614000000      1.67261357000000      0.17034780000000
  C   -2.89326388000000      0.50932105000000      0.79331292000000
  I   -1.85307974000000     -0.91267596000000      1.94456936000000
  O   -0.10226823000000     -2.46511350000000      3.05299727000000
  I   1.76736626000000     -1.10773241000000      1.88641616000000
  C   2.92126443000000      0.19982985000000      0.70633026000000
  N   4.23223692000000      0.05798376000000      0.42075879000000
  N   4.66241558000000      1.09338257000000     -0.29577291000000
  N   3.68618963000000      1.90298087000000     -0.48522047000000
  C   2.56972774000000      1.41002811000000      0.10292980000000
  C   1.31620539000000      2.15110865000000      0.05861149000000
  C   0.06593371000000      1.53444668000000      0.13963279000000
  C   -1.11337851000000      2.27988504000000      0.09081655000000
  C   -1.03878144000000      3.66074407000000     -0.07051592000000
  C   0.20639100000000      4.26936117000000     -0.16822616000000
  N   0.27933373000000      5.68559517000000     -0.32577196000000
  C   1.38257056000000      3.53266570000000     -0.10203119000000
  H   0.00955428000000      0.46154082000000      0.20791440000000
  H   -1.94166922000000      4.24740521000000     -0.12879218000000
  H   2.34041660000000      4.02113467000000     -0.18428438000000
  O   1.37951637000000      6.20769960000000     -0.40655823000000
  O   -0.76104433000000      6.32234108000000     -0.36678030000000
  H   5.02461533000000     -0.41591113000000     -2.04921875000000
  C   4.82607083000000     -1.44823738000000     -2.34182071000000
  C   5.44255774000000     -2.40790302000000     -1.32226464000000
  C   3.32305442000000     -1.64209868000000     -2.52797692000000
  C   2.77242742000000     -0.75294306000000     -3.65016998000000
  H   5.32025263000000     -1.61271146000000     -3.30319319000000
  C   1.27551765000000     -0.85372321000000     -3.70433578000000
  H   0.95579455000000      0.80287498000000     -2.38987307000000
  C   0.48612564000000      0.01688905000000     -2.96484252000000
  C   0.64590790000000     -1.84679650000000     -4.44444946000000
  H   1.24237766000000     -2.53096488000000     -5.03189743000000
  C   -0.89088500000000     -0.10775613000000     -2.95489595000000
  C   -0.73126885000000     -1.96820634000000     -4.43880133000000
  H   -1.48217842000000      0.58382712000000     -2.37016728000000
  C   -1.52065378000000     -1.10414938000000     -3.68923569000000
  H   -1.20292479000000     -2.74517684000000     -5.02422321000000
  C   -3.01223975000000     -1.27256099000000     -3.63538050000000
  C   -3.38950546000000     -2.41259159000000     -2.67929103000000
  C   -5.41197644000000     -1.42964234000000     -1.46138929000000
  H   -5.41770434000000     -2.40642095000000     -3.38053750000000
  C   -4.89646192000000     -2.50096909000000     -2.42535417000000
  H   -5.13248440000000     -3.48469244000000     -2.01290680000000
  H   6.51742787000000     -2.21678565000000     -1.27571773000000
  H   5.30196778000000     -3.43189992000000     -1.67801801000000
  C   4.86810349000000     -2.32619187000000      0.09307630000000
  H   -6.49756162000000     -1.35218076000000     -1.55098322000000
  H   -4.99745408000000     -0.45964745000000     -1.74078976000000
  C   -5.05423220000000     -1.73648675000000     -0.00685133000000
  H   -3.40148468000000     -1.49729667000000     -4.63133724000000
  H   -3.46615802000000     -0.34032906000000     -3.29523875000000
  H   -2.85858012000000     -2.27107813000000     -1.73582514000000
  H   -3.03786406000000     -3.35495436000000     -3.10502628000000
  H   2.79250378000000     -1.39331322000000     -1.60632843000000
  H   3.10770250000000     -2.68894711000000     -2.75664815000000
  H   3.20858324000000     -1.06024220000000     -4.60309051000000
  H   3.06510564000000      0.28138606000000     -3.45453539000000
  C   -5.18252570000000     -0.50463988000000      0.89241579000000
  H   -5.01667782000000     -0.78367810000000      1.93621144000000
  H   -6.16561647000000     -0.04401526000000      0.77959040000000
  C   5.12193352000000     -0.99941122000000      0.81567627000000
  H   6.13220952000000     -0.63892683000000      0.61250814000000
  H   4.99492409000000     -1.14929632000000      1.89206955000000
  H   -4.02816877000000     -2.10217970000000      0.05886435000000
  H   -5.70820238000000     -2.51791858000000      0.38208396000000
  H   5.33491466000000     -3.11035787000000      0.69220433000000
  H   3.79693355000000     -2.52810589000000      0.07765512000000
  H   -0.09302810000000     -2.58867918000000      4.00287317000000
