65
Coordinates from ORCA-job bis5_tetF_Cl_conf_27_sp_orca
  N   2.71399785000000      3.43891623000000      0.52212569000000
  N   3.38592044000000      3.28534963000000      1.66171574000000
  N   3.52460174000000      2.02214503000000      1.88455355000000
  C   2.92733735000000      1.31834472000000      0.88792754000000
  C   2.40662739000000      2.23346586000000     -0.01913180000000
  I   1.38863596000000      1.94870896000000     -1.81337689000000
  I   -0.78013012000000     -1.39566343000000     -2.06127057000000
  C   -0.55033293000000     -2.84600265000000     -0.58131360000000
  N   -1.36806357000000     -3.91416685000000     -0.40168777000000
  N   -0.90830993000000     -4.70379008000000      0.56425870000000
  N   0.18358333000000     -4.19264196000000      1.02042036000000
  C   0.45769573000000     -3.03791848000000      0.35858426000000
  C   1.67166303000000     -2.26454382000000      0.68834500000000
  C   1.73269333000000     -0.86949315000000      0.57677687000000
  C   2.88551357000000     -0.15687685000000      0.93348012000000
  C   3.99268974000000     -0.85028834000000      1.42885095000000
  C   3.91172955000000     -2.23138671000000      1.54580132000000
  N   5.07535328000000     -2.96320912000000      2.07509140000000
  C   2.78193832000000     -2.95325495000000      1.18826203000000
  H   0.85161298000000     -0.31907046000000      0.24249461000000
  H   4.89712553000000     -0.32187696000000      1.73004136000000
  H   2.76006490000000     -4.03654980000000      1.30355477000000
  O   4.96650167000000     -4.15798079000000      2.24094545000000
  O   6.07987825000000     -2.33111668000000      2.31725872000000
  H   -3.07137232000000     -2.00449536000000      0.40327462000000
  C   -4.04028661000000     -2.48658601000000      0.18390987000000
  C   -3.81616145000000     -3.96990163000000     -0.09645762000000
  C   -4.98638476000000     -2.23315789000000      1.35408221000000
  C   -5.33703208000000     -0.75254316000000      1.55818994000000
  H   -4.42401947000000     -1.99502535000000     -0.72715700000000
  C   -4.12571796000000      0.13701526000000      1.67338746000000
  F   -4.27208313000000      0.80349787000000     -0.58899113000000
  C   -3.64264980000000      0.86505549000000      0.58780454000000
  C   -3.39595595000000      0.23304321000000      2.85577737000000
  F   -3.79363867000000     -0.45219836000000      3.93288319000000
  C   -2.50594531000000      1.65704729000000      0.68789952000000
  C   -2.25605143000000      1.02504682000000      2.95587367000000
  F   -2.10430925000000      2.33461967000000     -0.39072154000000
  C   -1.77240585000000      1.74913180000000      1.86926185000000
  F   -1.61390137000000      1.07247719000000      4.12647605000000
  C   -0.53257796000000      2.59734680000000      1.93834371000000
  C   -0.80153823000000      4.09114473000000      2.16360832000000
  C   0.82831343000000      5.04990399000000      0.42830688000000
  H   0.28936092000000      5.94966303000000      2.33331600000000
  C   0.44754779000000      4.94201004000000      1.91811359000000
  H   1.28441838000000      4.51183321000000      2.49484748000000
  H   -4.71960506000000     -4.41294768000000     -0.54671223000000
  H   -3.63852791000000     -4.51318264000000      0.84713386000000
  C   -2.64257107000000     -4.24784960000000     -1.03006583000000
  H   0.60076318000000      6.05668908000000      0.04469642000000
  H   0.21206218000000      4.36255500000000     -0.17461017000000
  C   2.29817454000000      4.77496477000000      0.11130125000000
  H   -2.71386648000000     -3.66378811000000     -1.95770293000000
  H   -2.59490719000000     -5.31141052000000     -1.29951770000000
  H   2.96408352000000      5.46447931000000      0.64766416000000
  H   2.49234070000000      4.87757078000000     -0.96585789000000
  H   0.00258600000000      2.46279110000000      0.98734612000000
  H   0.12947001000000      2.21508408000000      2.72941460000000
  H   -1.16758119000000      4.23986995000000      3.19254454000000
  H   -1.61185746000000      4.42492757000000      1.49263992000000
  H   -4.53267849000000     -2.63238087000000      2.27756146000000
  H   -5.92765010000000     -2.78935642000000      1.20622107000000
  H   -5.94719283000000     -0.64246564000000      2.46706090000000
  H   -5.94830387000000     -0.39855678000000      0.71516213000000
  Cl  -0.53305673000000      0.99276128000000     -4.22313384000000
