66
Coordinates from ORCA-job bis5_tetF_OH_conf_6_sp
  N   0.60352545677990     -4.06115731627349     -0.24534138986260
  N   1.42129599314205     -4.49149544641801      0.71436720783552
  N   2.16877145041543     -3.50597728947075      1.07673043699973
  C   1.83963667898219     -2.39992124588721      0.35808149750080
  C   0.81616730883682     -2.75049633178977     -0.52209832822137
  I   -0.10623459408530     -1.59159676568787     -2.03648914438938
  O   -0.91120689292973      0.26632486710588     -3.62860228971032
  I   0.19276845769959      2.06872713502278     -2.11110104553969
  C   1.07348232523239      3.08719232444543     -0.48143463281908
  N   0.81188880367257      4.35249221374564     -0.07015418512909
  N   1.53654570956730      4.66805293616372      1.00485892936187
  N   2.26239326882380      3.64739476231822      1.31459081892720
  C   2.00984587522428      2.63390889888213      0.44506704007345
  C   2.66270297356055      1.31737390506184      0.60881821474302
  C   1.96164930314406      0.12158761541728      0.39693319489631
  C   2.56544686980313     -1.13051671928362      0.57346028622469
  C   3.89197770545536     -1.18140194996788      1.01474596879668
  C   4.56516781413106      0.00961100903111      1.25022445865187
  N   5.95756557794794     -0.05342707307356      1.72653584710653
  C   3.98676009903416      1.25741983577898      1.05221986617728
  H   0.90894171163557      0.16767578235349      0.11719621524576
  H   4.38744941135926     -2.13795576427403      1.17852838747117
  H   4.55598346321464      2.16601384151346      1.24756269805181
  O   6.45909532457943     -1.14641543125040      1.87455761625163
  O   6.53059215078147      0.99113239899530      1.94665073233455
  H   -0.87001499036027      4.76853364503521      1.92543449098446
  C   -1.83603108374675      4.72872028132105      1.39322542517437
  C   -1.61360952873633      4.86486580952716     -0.12547484713715
  C   -2.55313320539275      3.43248952210710      1.78228754201097
  C   -1.64190310397275      2.20884011284252      1.62207737118986
  H   -2.41343546930910      5.59109937468041      1.76193904786054
  C   -2.34934206098965      0.88561180208210      1.71679032401685
  F   -1.79589594611823      0.60452026247822      3.99357683984474
  C   -2.39274955961526      0.14040611507384      2.89228648935387
  C   -3.00266527642499      0.33981901968071      0.61347728143960
  F   -3.00900137424444      1.00332437634905     -0.54553392744858
  C   -3.03105852530540     -1.09445237355134      2.95332423516051
  C   -3.63712173388500     -0.89438802858555      0.67427595029028
  F   -3.02029396937772     -1.76337156783935      4.11134128140662
  C   -3.67332327161532     -1.64544532696946      1.84741281579408
  F   -4.21406767024014     -1.36743107900827     -0.43412383132120
  C   -4.30630572801229     -3.01252456463105      1.89226068474813
  C   -3.29069537248669     -4.15401490502498      1.72957214065035
  C   -1.51046341056911     -5.22809682429860      0.25300422586246
  H   -2.97968858112939     -3.78112705925973     -0.38419911601969
  C   -2.37869717838811     -4.00129260632200      0.51532324175786
  H   -1.72961571230538     -3.12139508966330      0.66850671790778
  H   -2.31130170008504      5.60286043015853     -0.55147580819013
  H   -1.84929307981316      3.91388505543407     -0.63078344411529
  C   -0.20426220307196      5.28372723752872     -0.54311408692514
  H   -2.13176839078858     -6.06158109408823     -0.11408820957463
  H   -1.04483464822314     -5.57459495543879      1.19130160439220
  C   -0.40041198201252     -4.98224823944467     -0.76451942903489
  H   0.07223963683739      6.25954260118240     -0.12088700386197
  H   -0.12646755644147      5.34917201026176     -1.63784509772727
  H   -0.79392035172742     -4.55004079619980     -1.69494438959232
  H   0.11946041039631     -5.91706635225252     -1.01463770818679
  H   -5.05936325803200     -3.07113342676642      1.09284840646570
  H   -4.83959099958607     -3.12912927948266      2.84732591146262
  H   -3.85103523250959     -5.10220356966629      1.66370754780846
  H   -2.67052178201246     -4.22353419377665      2.63977226213176
  H   -3.45480968315442      3.30623333564468      1.15848413402461
  H   -2.90236010383317      3.48795880705138      2.82638268475387
  H   -0.83988194018992      2.24501946929142      2.37430994557241
  H   -1.15377489577245      2.24460473380637      0.63814092599827
  H   -0.67982607376310      0.18470671827431     -4.56088751990656
